ieee_feeder/ieee13_VLN_Node.Txt

LINE-GROUND and LINE-LINE VOLTAGES BY BUS & NODE

Bus       Node    VLN (kV)   Angle      pu     Base kV    Node-Node   VLL (kV)  Angle      pu

SOURCEBUS 1       4.1599 /_    0.0   0.99999     7.205        1-2     7.2052 /_   30.0   0.99999
   -      2         4.16 /_ -120.0   0.99999     7.205        2-3     7.2053 /_  -90.0   0.99999
   -      3       4.1599 /_  120.0   0.99999     7.205        3-1     7.2052 /_  150.0   0.99999
632 ..... 1       4.1052 /_   -0.9   0.98683     7.205        1-2     7.1357 /_   29.4   0.99033
   -      2       4.1464 /_ -120.6   0.99674     7.205        2-3     7.1414 /_  -90.9   0.99113
   -      3       4.0905 /_  119.2   0.98328     7.205        3-1     7.1001 /_  149.2   0.98539
645 ..... 2       4.1334 /_ -120.7   0.99362     7.205        2-3     7.1253 /_  -90.9    0.9889
   -      3       4.0878 /_  119.2   0.98266     7.205
633 ..... 1       4.1009 /_   -0.9    0.9858     7.205        1-2     7.1294 /_   29.4   0.98946
   -      2       4.1437 /_ -120.6   0.99608     7.205        2-3     7.1353 /_  -91.0   0.99029
   -      3       4.0868 /_  119.2   0.98239     7.205        3-1     7.0939 /_  149.2   0.98454
634 ..... 1       4.0532 /_   -1.4   0.97432     7.205        1-2     7.0504 /_   29.0   0.97849
   -      2       4.1065 /_ -121.0   0.98714     7.205        2-3     7.0706 /_  -91.3    0.9813
   -      3       4.0484 /_  118.8   0.97317     7.205        3-1      7.024 /_  148.7   0.97483
646 ..... 2       4.1311 /_ -120.7   0.99304     7.205        2-3     7.1193 /_  -90.9   0.98806
   -      3        4.085 /_  119.2   0.98198     7.205
684 ..... 1       4.0602 /_   -1.9   0.97601     7.205
   -      3       4.0331 /_  118.5   0.96949     7.205        3-1     7.0214 /_  148.4   0.97447
652 ..... 1       4.0521 /_   -1.8   0.97407     7.205
671 ..... 1        4.063 /_   -1.9   0.97669     7.205        1-2     7.0834 /_   29.1   0.98307
   -      2       4.1596 /_ -120.8    0.9999     7.205        2-3     7.1215 /_  -91.6   0.98836
   -      3       4.0359 /_  118.5   0.97017     7.205        3-1     7.0273 /_  148.4   0.97529
611 ..... 3       4.0303 /_  118.4   0.96881     7.205
675 ..... 1       4.0542 /_   -1.9   0.97456     7.205        1-2     7.0775 /_   29.0   0.98225
   -      2       4.1628 /_ -120.9    1.0007     7.205        2-3     7.1198 /_  -91.7   0.98813
   -      3       4.0332 /_  118.5   0.96951     7.205        3-1     7.0203 /_  148.4   0.97432
